# opt=modredundant wb97x/6-31G(d) nosymm

 Ephedrine torsion scan of O-C-C-N

0 1
       H    -1.36000   -1.41700   -1.53300
       C    -1.30300   -0.48900   -0.96900
       C    -2.42500   -0.01700   -0.29100
       H    -3.35700   -0.57500   -0.32600
       C    -2.34900    1.17000    0.43500
       H    -3.22200    1.53600    0.96900
       C    -1.15200    1.88700    0.48100
       H    -1.11000    2.80500    1.06400
       C    -0.01500    1.42700   -0.20100
       C     1.30300    2.18000   -0.16300
       C    -0.10500    0.22700   -0.92300
       H     0.76100   -0.16000   -1.45700
       O     1.08100    3.59000   -0.01400
       H     1.77500    2.06000   -1.14800
       C     2.29500    1.66400    0.93100
       H     0.42300    3.82900   -0.68900
       C     1.68221    0.53468    1.77176
       N     2.68503    2.81893    1.77422
       H     3.19412    1.28555    0.42877
       H     0.81482    0.87984    2.34518
       H     2.41067    0.12251    2.47786
       H     1.36161   -0.29934    1.14163
       H     1.84187    3.17808    2.22923
       C     3.70531    2.51746    2.76322
       H     4.58379    2.05558    2.30275
       H     4.03513    3.44868    3.23422
       H     3.33003    1.86675    3.55858

D 13 10 15 18 s 36 10.0

